<?xml version="1.0" encoding="UTF-8"?>
<edges xmlns:xsi="http://www.w3.org/2001/XMLSchema-instance" xsi:noNamespaceSchemaLocation="
http://sumo.dlr.de/xsd/edges_file.xsd">

   <edge id="edge1-0" from="1" to="node0" numLanes="3" width="4" type="go_in_to_junction" />
   <edge id="edge0-1" from="node0" to="1" numLanes="3" width="4" type="come_out_of_junction" />

   <edge id="edge2-0" from="2" to="node0" numLanes="3" width="4" type="go_in_to_junction" />
   <edge id="edge0-2" from="node0" to="2" numLanes="3" width="4" type="come_out_of_junction" />

   <edge id="edge3-0" from="3" to="node0" numLanes="3" width="4" type="go_in_to_junction" />
   <edge id="edge0-3" from="node0" to="3" numLanes="3" width="4" type="come_out_of_junction" />

   <edge id="edge4-0" from="4" to="node0" numLanes="3" width="4" type="go_in_to_junction" />
   <edge id="edge0-4" from="node0" to="4" numLanes="3" width="4" type="come_out_of_junction" />

</edges>