<routes>


    <flow id="01" type="Car" begin="0" end="36000" number="14400" from="edge1-0" to="edge0-2" departPos="1" departLane="best" departSpeed="5.0"/>
    <flow id="02" type="Car" begin="0" end="36000" number="14400" from="edge2-0" to="edge0-1" departPos="2" departLane="best" departSpeed="5.0"/>
    <flow id="03" type="Car" begin="36000" end="72000" number="14400" from="edge3-0" to="edge0-4" departPos="3" departLane="best" departSpeed="5.0"/>
    <flow id="04" type="Car" begin="36000" end="72000" number="14400" from="edge4-0" to="edge0-3" departPos="4" departLane="best" departSpeed="5.0"/>


    <flow id="11" type="Car" begin="72000" end="144000" number="2400" from="edge1-0" to="edge0-2" departPos="1" departLane="best" departSpeed="5.0"/>
    <flow id="12" type="Car" begin="72000" end="144000" number="2400" from="edge2-0" to="edge0-1" departPos="2" departLane="best" departSpeed="5.0"/>
    <flow id="13" type="Car" begin="72000" end="144000" number="2400" from="edge3-0" to="edge0-4" departPos="3" departLane="best" departSpeed="5.0"/>
    <flow id="14" type="Car" begin="72000" end="144000" number="2400" from="edge4-0" to="edge0-3" departPos="4" departLane="best" departSpeed="5.0"/>


    <flow id="21" type="Car" begin="144000" end="216000" number="14400" from="edge1-0" to="edge0-2" departPos="1" departLane="best" departSpeed="5.0"/>
    <flow id="22" type="Car" begin="144000" end="216000" number="14400" from="edge2-0" to="edge0-1" departPos="2" departLane="best" departSpeed="5.0"/>
    <flow id="23" type="Car" begin="144000" end="216000" number="2400" from="edge3-0" to="edge0-4" departPos="3" departLane="best" departSpeed="5.0"/>
    <flow id="24" type="Car" begin="144000" end="216000" number="2400" from="edge4-0" to="edge0-3" departPos="4" departLane="best" departSpeed="5.0"/>

    <flow id="31" type="Car" begin="216000" end="288000" number="14400" from="edge1-0" to="edge0-2" departPos="1" departLane="best" departSpeed="5.0"/>
    <flow id="32" type="Car" begin="216000" end="288000" number="14400" from="edge2-0" to="edge0-1" departPos="2" departLane="best" departSpeed="5.0"/>
    <flow id="33" type="Car" begin="216000" end="288000" number="14400" from="edge3-0" to="edge0-4" departPos="3" departLane="best" departSpeed="5.0"/>
    <flow id="34" type="Car" begin="216000" end="288000" number="14400" from="edge4-0" to="edge0-3" departPos="4" departLane="best" departSpeed="5.0"/>


</routes>