<?xml version="1.0" encoding="iso-8859-1"?>
<connections xmlns:xsi="http://www.w3.org/2001/XMLSchema-instance" xsi:noNamespaceSchemaLocation="http://sumo.dlr.de/xsd/connections_file.xsd">
	<connection from="edge1-0" to="edge0-3" fromLane="0" toLane="0" />
    <connection from="edge1-0" to="edge0-2" fromLane="0" toLane="0" />
    <connection from="edge1-0" to="edge0-2" fromLane="1" toLane="1" />
    <connection from="edge1-0" to="edge0-4" fromLane="2" toLane="2" />

    <connection from="edge2-0" to="edge0-4" fromLane="0" toLane="0" />
    <connection from="edge2-0" to="edge0-1" fromLane="0" toLane="0" />
    <connection from="edge2-0" to="edge0-1" fromLane="1" toLane="1" />
    <connection from="edge2-0" to="edge0-3" fromLane="2" toLane="2" />

    <connection from="edge3-0" to="edge0-2" fromLane="0" toLane="0" />
    <connection from="edge3-0" to="edge0-4" fromLane="0" toLane="0" />
    <connection from="edge3-0" to="edge0-4" fromLane="1" toLane="1" />
    <connection from="edge3-0" to="edge0-1" fromLane="2" toLane="2" />

    <connection from="edge4-0" to="edge0-1" fromLane="0" toLane="0" />
    <connection from="edge4-0" to="edge0-3" fromLane="0" toLane="0" />
    <connection from="edge4-0" to="edge0-3" fromLane="1" toLane="1" />
    <connection from="edge4-0" to="edge0-2" fromLane="2" toLane="2" />
</connections>